175804
  -OEChem-01061511282D

 48 48  0     1  0  0  0  0  0999 V2000
    3.0680    0.0000    0.0000 Cl  0  0  0  0  0  0  0  0  0  0  0  0
    4.0010    6.1200    0.0000 O   0  0  0  0  0  0  0  0  0  0  0  0
    4.0010    8.1200    0.0000 N   0  0  3  0  0  0  0  0  0  0  0  0
    2.2690    6.1200    0.0000 N   0  0  0  0  0  0  0  0  0  0  0  0
    3.1350    7.6200    0.0000 C   0  0  1  0  0  0  0  0  0  0  0  0
    2.2690    8.1200    0.0000 C   0  0  0  0  0  0  0  0  0  0  0  0
    4.0010    9.1200    0.0000 C   0  0  0  0  0  0  0  0  0  0  0  0
    2.2690    9.1200    0.0000 C   0  0  0  0  0  0  0  0  0  0  0  0
    3.1350    9.6200    0.0000 C   0  0  0  0  0  0  0  0  0  0  0  0
    4.8671    7.6200    0.0000 C   0  0  0  0  0  0  0  0  0  0  0  0
    3.1350    6.6200    0.0000 C   0  0  0  0  0  0  0  0  0  0  0  0
    5.7331    8.1200    0.0000 C   0  0  0  0  0  0  0  0  0  0  0  0
    6.5991    7.6200    0.0000 C   0  0  0  0  0  0  0  0  0  0  0  0
    2.2690    5.1200    0.0000 C   0  0  0  0  0  0  0  0  0  0  0  0
    1.4030    4.6200    0.0000 C   0  0  0  0  0  0  0  0  0  0  0  0
    3.1350    4.6200    0.0000 C   0  0  0  0  0  0  0  0  0  0  0  0
    1.4030    3.6200    0.0000 C   0  0  0  0  0  0  0  0  0  0  0  0
    3.1350    3.6200    0.0000 C   0  0  0  0  0  0  0  0  0  0  0  0
    0.5369    5.1200    0.0000 C   0  0  0  0  0  0  0  0  0  0  0  0
    4.0010    5.1200    0.0000 C   0  0  0  0  0  0  0  0  0  0  0  0
    2.2690    3.1200    0.0000 C   0  0  0  0  0  0  0  0  0  0  0  0
    3.6720    7.3100    0.0000 H   0  0  0  0  0  0  0  0  0  0  0  0
    1.6584    8.2277    0.0000 H   0  0  0  0  0  0  0  0  0  0  0  0
    2.0569    7.5374    0.0000 H   0  0  0  0  0  0  0  0  0  0  0  0
    4.6116    9.0123    0.0000 H   0  0  0  0  0  0  0  0  0  0  0  0
    4.2131    9.7026    0.0000 H   0  0  0  0  0  0  0  0  0  0  0  0
    2.0569    9.7026    0.0000 H   0  0  0  0  0  0  0  0  0  0  0  0
    1.6584    9.0123    0.0000 H   0  0  0  0  0  0  0  0  0  0  0  0
    3.5335   10.0949    0.0000 H   0  0  0  0  0  0  0  0  0  0  0  0
    2.7365   10.0949    0.0000 H   0  0  0  0  0  0  0  0  0  0  0  0
    4.4685    7.1450    0.0000 H   0  0  0  0  0  0  0  0  0  0  0  0
    5.2656    7.1450    0.0000 H   0  0  0  0  0  0  0  0  0  0  0  0
    6.1316    8.5950    0.0000 H   0  0  0  0  0  0  0  0  0  0  0  0
    5.3346    8.5950    0.0000 H   0  0  0  0  0  0  0  0  0  0  0  0
    1.7320    6.4300    0.0000 H   0  0  0  0  0  0  0  0  0  0  0  0
    6.2891    7.0831    0.0000 H   0  0  0  0  0  0  0  0  0  0  0  0
    7.1360    7.3100    0.0000 H   0  0  0  0  0  0  0  0  0  0  0  0
    6.9091    8.1569    0.0000 H   0  0  0  0  0  0  0  0  0  0  0  0
    0.8660    3.3100    0.0000 H   0  0  0  0  0  0  0  0  0  0  0  0
    3.6720    3.3100    0.0000 H   0  0  0  0  0  0  0  0  0  0  0  0
    0.8469    5.6569    0.0000 H   0  0  0  0  0  0  0  0  0  0  0  0
    0.0000    5.4300    0.0000 H   0  0  0  0  0  0  0  0  0  0  0  0
    0.2269    4.5831    0.0000 H   0  0  0  0  0  0  0  0  0  0  0  0
    4.3110    4.5831    0.0000 H   0  0  0  0  0  0  0  0  0  0  0  0
    4.5380    5.4300    0.0000 H   0  0  0  0  0  0  0  0  0  0  0  0
    3.6910    5.6569    0.0000 H   0  0  0  0  0  0  0  0  0  0  0  0
    2.2690    2.5000    0.0000 H   0  0  0  0  0  0  0  0  0  0  0  0
    4.0680    0.0000    0.0000 H   0  0  0  0  0  0  0  0  0  0  0  0
  1 48  1  0  0  0  0
  2 11  2  0  0  0  0
  3  5  1  0  0  0  0
  3  7  1  0  0  0  0
  3 10  1  0  0  0  0
  4 11  1  0  0  0  0
  4 14  1  0  0  0  0
  4 35  1  0  0  0  0
  5  6  1  0  0  0  0
  5 11  1  6  0  0  0
  5 22  1  0  0  0  0
  6  8  1  0  0  0  0
  6 23  1  0  0  0  0
  6 24  1  0  0  0  0
  7  9  1  0  0  0  0
  7 25  1  0  0  0  0
  7 26  1  0  0  0  0
  8  9  1  0  0  0  0
  8 27  1  0  0  0  0
  8 28  1  0  0  0  0
  9 29  1  0  0  0  0
  9 30  1  0  0  0  0
 10 12  1  0  0  0  0
 10 31  1  0  0  0  0
 10 32  1  0  0  0  0
 12 13  1  0  0  0  0
 12 33  1  0  0  0  0
 12 34  1  0  0  0  0
 13 36  1  0  0  0  0
 13 37  1  0  0  0  0
 13 38  1  0  0  0  0
 14 15  2  0  0  0  0
 14 16  1  0  0  0  0
 15 17  1  0  0  0  0
 15 19  1  0  0  0  0
 16 18  2  0  0  0  0
 16 20  1  0  0  0  0
 17 21  2  0  0  0  0
 17 39  1  0  0  0  0
 18 21  1  0  0  0  0
 18 40  1  0  0  0  0
 19 41  1  0  0  0  0
 19 42  1  0  0  0  0
 19 43  1  0  0  0  0
 20 44  1  0  0  0  0
 20 45  1  0  0  0  0
 20 46  1  0  0  0  0
 21 47  1  0  0  0  0
M  END
> <PUBCHEM_COMPOUND_CID>
175804

> <PUBCHEM_COMPOUND_CANONICALIZED>
1

> <PUBCHEM_CACTVS_COMPLEXITY>
308

> <PUBCHEM_CACTVS_HBOND_ACCEPTOR>
2

> <PUBCHEM_CACTVS_HBOND_DONOR>
2

> <PUBCHEM_CACTVS_ROTATABLE_BOND>
4

> <PUBCHEM_CACTVS_SUBSKEYS>
AAADceB7IAAEAAAAAAAAAAAAAAAAAAAAAAA8QAAAAAAAAAABAAAAHgAQAAAADCjBmAQywIPAAACIAiVSUACCAAAhAAAIiAGIRIgIYDLAkbGUIAhglADIyAcYiEAOAAACAAACAAAAAAQAAAQAAAAAAAAAAA==

> <PUBCHEM_IUPAC_OPENEYE_NAME>
(2S)-N-(2,6-dimethylphenyl)-1-propyl-piperidine-2-carboxamide;hydrochloride

> <PUBCHEM_IUPAC_CAS_NAME>
(2S)-N-(2,6-dimethylphenyl)-1-propyl-2-piperidinecarboxamide;hydrochloride

> <PUBCHEM_IUPAC_NAME>
(2S)-N-(2,6-dimethylphenyl)-1-propylpiperidine-2-carboxamide;hydrochloride

> <PUBCHEM_IUPAC_SYSTEMATIC_NAME>
(2S)-N-(2,6-dimethylphenyl)-1-propyl-piperidine-2-carboxamide;hydrochloride

> <PUBCHEM_IUPAC_TRADITIONAL_NAME>
(2S)-N-(2,6-dimethylphenyl)-1-propyl-pipecolinamide;hydrochloride

> <PUBCHEM_IUPAC_INCHI>
InChI=1S/C17H26N2O.ClH/c1-4-11-19-12-6-5-10-15(19)17(20)18-16-13(2)8-7-9-14(16)3;/h7-9,15H,4-6,10-12H2,1-3H3,(H,18,20);1H/t15-;/m0./s1

> <PUBCHEM_IUPAC_INCHIKEY>
NDNSIBYYUOEUSV-RSAXXLAASA-N

> <PUBCHEM_EXACT_MASS>
310.181191

> <PUBCHEM_MOLECULAR_FORMULA>
C17H27ClN2O

> <PUBCHEM_MOLECULAR_WEIGHT>
310.86208

> <PUBCHEM_OPENEYE_CAN_SMILES>
CCCN1CCCCC1C(=O)NC2=C(C=CC=C2C)C.Cl

> <PUBCHEM_OPENEYE_ISO_SMILES>
CCCN1CCCC[C@H]1C(=O)NC2=C(C=CC=C2C)C.Cl

> <PUBCHEM_CACTVS_TPSA>
32.3

> <PUBCHEM_MONOISOTOPIC_WEIGHT>
310.181191

> <PUBCHEM_TOTAL_CHARGE>
0

> <PUBCHEM_HEAVY_ATOM_COUNT>
21

> <PUBCHEM_ATOM_DEF_STEREO_COUNT>
1

> <PUBCHEM_ATOM_UDEF_STEREO_COUNT>
0

> <PUBCHEM_BOND_DEF_STEREO_COUNT>
0

> <PUBCHEM_BOND_UDEF_STEREO_COUNT>
0

> <PUBCHEM_ISOTOPIC_ATOM_COUNT>
0

> <PUBCHEM_COMPONENT_COUNT>
2

> <PUBCHEM_CACTVS_TAUTO_COUNT>
3

> <PUBCHEM_COORDINATE_TYPE>
1
5
255

> <PUBCHEM_BONDANNOTATIONS>
14  15  8
14  16  8
15  17  8
16  18  8
17  21  8
18  21  8
5  11  6

$$$$
